        12
Translated Molecule
   C1   -0.42083    1.38735    0.02587
   H1   -0.71105    2.34414    0.04372
   C2   -1.19105    0.41015    0.66681
   H2   -2.03166    0.66887    1.14261
   C3   -0.75571   -1.02504    0.64004
   H3   -1.30609   -1.72311    1.09801
   C4    0.42083   -1.38735   -0.02587
   H4    0.71105   -2.34414   -0.04372
   C5    1.19105   -0.41015   -0.66681
   H5    2.03166   -0.66887   -1.14261
   C6    0.75571    1.02504   -0.64004
   H6    1.30609    1.72311   -1.09801
