       768
Translated Molecule
   C1    0.26267   -0.01642   -1.42592
   H1    0.44382   -0.02774   -2.40931
   C2    1.29649    0.26996   -0.52695
   H2    2.21636    0.46327   -0.86817
   C3    1.02477    0.28695    0.94814
   H3    1.76348    0.49157    1.59031
   C4   -0.26267    0.01642    1.42592
   H4   -0.44382    0.02774    2.40931
   C5   -1.29649   -0.26996    0.52695
   H5   -2.21636   -0.46327    0.86817
   C6   -1.02477   -0.28695   -0.94814
   H6   -1.76348   -0.49157   -1.59031
   C1    0.83109    0.46905    4.90831
   H1    1.40425    0.79253    4.15542
   C2    0.42325    1.35798    5.90951
   H2    0.70510    2.31668    5.87188
   C3   -0.43650    0.87276    7.03885
   H3   -0.72781    1.50797    7.75411
   C4   -0.83109   -0.46905    7.09169
   H4   -1.40425   -0.79253    7.84458
   C5   -0.42325   -1.35798    6.09049
   H5   -0.70510   -2.31668    6.12812
   C6    0.43650   -0.87276    4.96115
   H6    0.72781   -1.50797    4.24589
   C1   -0.00747    0.00017   10.55002
   H1   -0.01262    0.00029    9.55003
   C2    0.71808    0.97360   11.24641
   H2    1.23134    1.66926   10.74384
   C3    0.72580    0.97343   12.74639
   H3    1.24422    1.66897   13.24381
   C4    0.00747   -0.00017   13.44998
   H4    0.01262   -0.00029   14.44997
   C5   -0.71808   -0.97360   12.75359
   H5   -1.23134   -1.66926   13.25616
   C6   -0.72580   -0.97343   11.25361
   H6   -1.24422   -1.66897   10.75619
   C1    0.18230    0.38515   19.38597
   H1    0.30802    0.65077   20.34182
   C2    0.80343    1.11819   18.36823
   H2    1.37299    1.90763   18.59704
   C3    0.61485    0.71976   16.93447
   H3    1.05868    1.24357   16.20743
   C4   -0.18230   -0.38515   16.61403
   H4   -0.30802   -0.65077   15.65818
   C5   -0.80343   -1.11819   17.63177
   H5   -1.37299   -1.90763   17.40296
   C6   -0.61485   -0.71976   19.06553
   H6   -1.05868   -1.24357   19.79257
   C1   -0.99490    5.61899   -0.98362
   H1   -1.68103    5.35623   -1.66198
   C2   -1.26748    5.47122    0.38122
   H2   -2.14849    5.10282    0.67796
   C3   -0.23827    5.86536    1.39876
   H3   -0.43315    5.75973    2.37386
   C4    0.99490    6.38101    0.98362
   H4    1.68103    6.64377    1.66198
   C5    1.26748    6.52878   -0.38122
   H5    2.14849    6.89718   -0.67796
   C6    0.23827    6.13464   -1.39876
   H6    0.43315    6.24027   -2.37386
   C1    0.97126    5.39309    5.11073
   H1    1.64110    4.97452    4.49744
   C2    0.46563    6.66763    4.83000
   H2    0.77428    7.15969    4.01602
   C3   -0.53913    7.29547    5.74994
   H3   -0.90031    8.20610    5.54925
   C4   -0.97126    6.60691    6.88927
   H4   -1.64110    7.02548    7.50256
   C5   -0.46563    5.33237    7.17000
   H5   -0.77428    4.84031    7.98398
   C6    0.53913    4.70453    6.25006
   H6    0.90031    3.79390    6.45075
   C1   -0.72122    5.24024   10.99745
   H1   -1.21861    4.71627   10.30604
   C2    0.39530    6.00035   10.63063
   H2    0.69561    6.01940    9.67700
   C3    1.14139    6.78631   11.66775
   H3    1.93909    7.32934   11.40553
   C4    0.72122    6.75976   13.00255
   H4    1.21861    7.28373   13.69396
   C5   -0.39530    5.99965   13.36937
   H5   -0.69561    5.98060   14.32300
   C6   -1.14139    5.21369   12.33225
   H6   -1.93909    4.67066   12.59447
   C1   -1.21599    5.45756   18.57412
   H1   -2.05461    5.08346   18.97006
   C2   -0.47527    4.70015   17.65946
   H2   -0.78475    3.78481   17.40192
   C3    0.78266    5.26130   17.06554
   H3    1.31179    4.72006   16.41206
   C4    1.21599    6.54244   17.42588
   H4    2.05461    6.91654   17.02994
   C5    0.47527    7.29985   18.34054
   H5    0.78475    8.21519   18.59808
   C6   -0.78266    6.73870   18.93446
   H6   -1.31179    7.27994   19.58794
   C1   -1.41523   12.23545    0.21022
   H1   -2.39125   12.39783    0.35520
   C2   -0.87358   10.96715    0.44892
   H2   -1.46274   10.22333    0.76448
   C3    0.59045   10.72358    0.23145
   H3    0.97731    9.81738    0.40203
   C4    1.41523   11.76455   -0.21022
   H4    2.39125   11.60217   -0.35520
   C5    0.87358   13.03285   -0.44892
   H5    1.46274   13.77667   -0.76448
   C6   -0.59045   13.27642   -0.23145
   H6   -0.97731   14.18262   -0.40203
   C1   -1.04882   11.51687    5.12304
   H1   -1.77215   11.18368    4.51824
   C2    0.01905   12.25338    4.59754
   H2    0.05863   12.44638    3.61717
   C3    1.10404   12.75317    5.50475
   H3    1.86694   13.27936    5.12917
   C4    1.04882   12.48313    6.87696
   H4    1.77215   12.81632    7.48176
   C5   -0.01905   11.74662    7.40246
   H5   -0.05863   11.55362    8.38283
   C6   -1.10404   11.24683    6.49525
   H6   -1.86694   10.72064    6.87083
   C1    1.22997   11.23419   12.05658
   H1    2.07823   10.70604   12.09560
   C2    0.14429   10.76077   11.31084
   H2    0.21695    9.89427   10.81703
   C3   -1.12809   11.55299   11.25231
   H3   -1.90369   11.21464   10.71947
   C4   -1.22997   12.76581   11.94342
   H4   -2.07823   13.29396   11.90440
   C5   -0.14429   13.23923   12.68916
   H5   -0.21695   14.10573   13.18297
   C6    1.12809   12.44701   12.74769
   H6    1.90369   12.78536   13.28053
   C1    0.13980   13.43775   18.12588
   H1    0.23621   14.42929   18.21269
   C2    0.44578   12.80814   16.91389
   H2    0.76084   13.34998   16.13472
   C3    0.30116   11.32082   16.78367
   H3    0.51980   10.87111   15.91769
   C4   -0.13980   10.56225   17.87412
   H4   -0.23621    9.57071   17.78731
   C5   -0.44578   11.19186   19.08611
   H5   -0.76084   10.65002   19.86528
   C6   -0.30116   12.67918   19.21633
   H6   -0.51980   13.12889   20.08231
   C1   -0.92756   18.76958    0.80614
   H1   -1.56726   19.30033    1.36210
   C2    0.40676   18.63826    1.20773
   H2    0.72036   19.07527    2.05072
   C3    1.36631   17.84214    0.37379
   H3    2.31961   17.74840    0.66082
   C4    0.92756   17.23042   -0.80614
   H4    1.56726   16.69967   -1.36210
   C5   -0.40676   17.36174   -1.20773
   H5   -0.72036   16.92473   -2.05072
   C6   -1.36631   18.15786   -0.37379
   H6   -2.31961   18.25160   -0.66082
   C1   -0.07566   17.99328    7.44801
   H1   -0.12784   17.98865    8.44664
   C2   -1.01795   17.28385    6.69452
   H2   -1.74342   16.77231    7.15493
   C3   -0.93968   17.29080    5.19658
   H3   -1.61297   16.78389    4.65836
   C4    0.07566   18.00672    4.55199
   H4    0.12784   18.01135    3.55336
   C5    1.01795   18.71615    5.30548
   H5    1.74342   19.22769    4.84507
   C6    0.93968   18.70920    6.80342
   H6    1.61297   19.21611    7.34164
   C1    0.91147   19.12737   12.02753
   H1    1.54007   19.90487   12.04651
   C2    0.25038   18.79050   10.84075
   H2    0.40673   19.32743   10.01176
   C3   -0.69251   17.62426   10.81228
   H3   -1.16477   17.38368    9.96431
   C4   -0.91147   16.87263   11.97247
   H4   -1.54007   16.09513   11.95349
   C5   -0.25038   17.20950   13.15925
   H5   -0.40673   16.67257   13.98824
   C6    0.69251   18.37574   13.18772
   H6    1.16477   18.61632   14.03569
   C1    0.48319   17.35993   16.79197
   H1    0.81643   16.91850   15.95885
   C2    1.35176   17.56732   17.86971
   H2    2.30566   17.27401   17.80652
   C3    0.85191   18.22947   19.11939
   H3    1.47257   18.37759   19.88932
   C4   -0.48319   18.64007   19.20803
   H4   -0.81643   19.08150   20.04115
   C5   -1.35176   18.43268   18.13029
   H5   -2.30566   18.72599   18.19348
   C6   -0.85191   17.77053   16.88061
   H6   -1.47257   17.62241   16.11068
   C1    5.24428   -1.22729    0.15858
   H1    4.72309   -2.07370    0.26794
   C2    4.79289   -0.04506    0.75651
   H2    3.94910   -0.04687    1.29313
   C3    5.57467    1.22455    0.59246
   H3    5.25206    2.06914    1.01972
   C4    6.75572    1.22729   -0.15858
   H4    7.27691    2.07370   -0.26794
   C5    7.20711    0.04506   -0.75651
   H5    8.05090    0.04687   -1.29313
   C6    6.42533   -1.22455   -0.59246
   H6    6.74794   -2.06914   -1.01972
   C1    4.58128   -0.24765    5.83147
   H1    3.60285   -0.41844    5.71524
   C2    5.03664    0.49824    6.92474
   H2    4.38342    0.86037    7.58966
   C3    6.50428    0.75443    7.09908
   H3    6.82949    1.28736    7.88023
   C4    7.41872    0.24765    6.16853
   H4    8.39715    0.41844    6.28476
   C5    6.96336   -0.49824    5.07526
   H5    7.61658   -0.86037    4.41034
   C6    5.49572   -0.75443    4.90092
   H6    5.17051   -1.28736    4.11977
   C1    5.01392    0.59368   11.11813
   H1    4.33387    1.00311   10.50994
   C2    4.97276    0.85672   12.49219
   H2    4.26318    1.45417   12.86571
   C3    5.99284    0.24257   13.40448
   H3    5.96332    0.43059   14.38618
   C4    6.98608   -0.59368   12.88187
   H4    7.66613   -1.00311   13.49006
   C5    7.02724   -0.85672   11.50781
   H5    7.73682   -1.45417   11.13429
   C6    6.00716   -0.24257   10.59552
   H6    6.03668   -0.43059    9.61382
   C1    5.42508   -0.49510   16.76435
   H1    5.02858   -0.83655   15.91217
   C2    4.59790    0.05549   17.75003
   H2    3.61030    0.10739   17.60201
   C3    5.19265    0.56766   19.02829
   H3    4.60155    0.96101   19.73244
   C4    6.57492    0.49510   19.23565
   H4    6.97142    0.83655   20.08783
   C5    7.40210   -0.05549   18.24997
   H5    8.38970   -0.10739   18.39799
   C6    6.80735   -0.56766   16.97171
   H6    7.39845   -0.96101   16.26756
   C1    5.41998    6.14063    1.32148
   H1    5.01997    6.23762    2.23284
   C2    4.76607    5.37710    0.34764
   H2    3.89876    4.92854    0.56333
   C3    5.36609    5.23161   -1.01940
   H3    4.89879    4.68607   -1.71508
   C4    6.58002    5.85937   -1.32148
   H4    6.98003    5.76238   -2.23284
   C5    7.23393    6.62290   -0.34764
   H5    8.10124    7.07146   -0.56333
   C6    6.63391    6.76839    1.01940
   H6    7.10121    7.31393    1.71508
   C1    5.99050    5.65113    7.40737
   H1    5.98395    5.41053    8.37797
   C2    5.73839    4.67025    6.44132
   H2    5.55170    3.72875    6.72182
   C3    5.74821    5.03115    4.98542
   H3    5.56807    4.33025    4.29531
   C4    6.00950    6.34887    4.59263
   H4    6.01605    6.58947    3.62203
   C5    6.26161    7.32975    5.55868
   H5    6.44830    8.27125    5.27818
   C6    6.25179    6.96885    7.01458
   H6    6.43193    7.66975    7.70469
   C1    4.88181    5.23593   12.51803
   H1    4.11065    4.70899   12.87530
   C2    5.45874    4.88823   11.29117
   H2    5.09968    4.11275   10.77187
   C3    6.61549    5.67864   10.75527
   H3    7.02759    5.43011    9.87871
   C4    7.11819    6.76407   11.48197
   H4    7.88935    7.29101   11.12470
   C5    6.54126    7.11177   12.70883
   H5    6.90032    7.88725   13.22813
   C6    5.38451    6.32136   13.24473
   H6    4.97241    6.56989   14.12129
   C1    6.21337    6.29241   16.59591
   H1    6.36053    6.49408   15.62757
   C2    5.01626    5.69947   17.01339
   H2    4.30808    5.47750   16.34320
   C3    4.79553    5.39697   18.46590
   H3    3.94020    4.97334   18.76404
   C4    5.78663    5.70759   19.40409
   H4    5.63947    5.50592   20.37243
   C5    6.98374    6.30053   18.98661
   H5    7.69192    6.52250   19.65680
   C6    7.20447    6.60303   17.53410
   H6    8.05980    7.02666   17.23596
   C1    4.87769   12.29801   -0.86840
   H1    4.10369   12.50354   -1.46730
   C2    5.41436   11.00576   -0.83663
   H2    5.02369   10.28797   -1.41293
   C3    6.57537   10.69747    0.06171
   H3    6.95870    9.77416    0.08431
   C4    7.12231   11.70199    0.86840
   H4    7.89631   11.49646    1.46730
   C5    6.58564   12.99424    0.83663
   H5    6.97631   13.71203    1.41293
   C6    5.42463   13.30253   -0.06171
   H6    5.04130   14.22584   -0.08431
   C1    5.89976   12.89400    7.13719
   H1    5.83063   13.51056    7.92147
   C2    5.29797   11.63124    7.18432
   H2    4.79883   11.34562    8.00239
   C3    5.40167   10.70641    6.00791
   H3    4.97166    9.80424    6.04171
   C4    6.10024   11.10600    4.86281
   H4    6.16937   10.48944    4.07853
   C5    6.70203   12.36876    4.81568
   H5    7.20117   12.65438    3.99761
   C6    6.59833   13.29359    5.99209
   H6    7.02834   14.19576    5.95829
   C1    4.55759   11.90424   12.11304
   H1    3.56282   11.83820   12.19099
   C2    5.34716   11.97224   13.26668
   H2    4.91640   11.95478   14.16895
   C3    6.83931   12.07131   13.14975
   H3    7.40331   12.11989   13.97406
   C4    7.44241   12.09576   11.88696
   H4    8.43718   12.16180   11.80901
   C5    6.65284   12.02776   10.73332
   H5    7.08360   12.04522    9.83105
   C6    5.16069   11.92869   10.85025
   H6    4.59669   11.88011   10.02594
   C1    6.42906   11.38665   16.75814
   H1    6.72496   10.96366   15.90169
   C2    7.21744   11.26458   17.90814
   H2    8.07671   10.75429   17.87324
   C3    6.77359   11.89908   19.19282
   H3    7.33696   11.81179   20.01438
   C4    5.57094   12.61335   19.24186
   H4    5.27504   13.03634   20.09831
   C5    4.78256   12.73542   18.09186
   H5    3.92329   13.24571   18.12676
   C6    5.22641   12.10092   16.80718
   H6    4.66304   12.18821   15.98562
   C1    6.58420   16.76209    0.47831
   H1    6.98710   15.90836    0.80819
   C2    6.64368   17.08432   -0.88241
   H2    7.08914   16.46069   -1.52475
   C3    6.03934   18.36492   -1.37722
   H3    6.08190   18.59502   -2.34943
   C4    5.41580   19.23791   -0.47831
   H4    5.01290   20.09164   -0.80819
   C5    5.35632   18.91568    0.88241
   H5    4.91086   19.53931    1.52475
   C6    5.96066   17.63508    1.37722
   H6    5.91810   17.40498    2.34943
   C1    6.00206   17.68895    7.41624
   H1    6.00349   17.47444    8.39296
   C2    5.00184   18.50876    6.88107
   H2    4.28858   18.87999    7.47556
   C3    4.99971   18.83053    5.41599
   H3    4.28503   19.41627    5.03376
   C4    5.99794   18.31105    4.58376
   H4    5.99651   18.52556    3.60704
   C5    6.99816   17.49124    5.11893
   H5    7.71142   17.12001    4.52444
   C6    7.00029   17.16947    6.58401
   H6    7.71497   16.58373    6.96624
   C1    5.47250   19.33844   12.18112
   H1    5.10870   20.26151   12.30604
   C2    5.66934   18.83224   10.89118
   H2    5.44613   19.39376   10.09442
   C3    6.21503   17.44764   10.70381
   H3    6.35562   17.08610    9.78214
   C4    6.52750   16.66156   11.81888
   H4    6.89130   15.73849   11.69396
   C5    6.33066   17.16776   13.10882
   H5    6.55387   16.60624   13.90558
   C6    5.78497   18.55236   13.29619
   H6    5.64438   18.91390   14.21786
   C1    6.92029   18.60042   18.94607
   H1    7.55498   19.01451   19.59854
   C2    5.56124   18.93279   18.98430
   H2    5.22496   19.58442   19.66418
   C3    4.60922   18.31166   18.00560
   H3    3.63825   18.54921   18.03303
   C4    5.07971   17.39958   17.05393
   H4    4.44502   16.98549   16.40146
   C5    6.43876   17.06721   17.01570
   H5    6.77504   16.41558   16.33582
   C6    7.39078   17.68834   17.99440
   H6    8.36175   17.45079   17.96697
   C1   10.86165    0.10745    0.89169
   H1   10.07658    0.18156    1.50665
   C2   10.96755    0.95900   -0.21402
   H2   10.25802    1.64157   -0.38901
   C3   12.14515    0.84785   -1.13646
   H3   12.22069    1.45631   -1.92641
   C4   13.13835   -0.10745   -0.89169
   H4   13.92342   -0.18156   -1.50665
   C5   13.03245   -0.95900    0.21402
   H5   13.74198   -1.64157    0.38901
   C6   11.85485   -0.84785    1.13646
   H6   11.77931   -1.45631    1.92641
   C1   12.58762    0.20199    7.31012
   H1   12.99287    0.34130    8.21364
   C2   13.36587    0.37463    6.15969
   H2   14.32726    0.63731    6.24137
   C3   12.75798    0.16567    4.80440
   H3   13.31413    0.28905    3.98255
   C4   11.41238   -0.20199    4.68988
   H4   11.00713   -0.34130    3.78636
   C5   10.63413   -0.37463    5.84031
   H5    9.67274   -0.63731    5.75863
   C6   11.24202   -0.16567    7.19560
   H6   10.68587   -0.28905    8.01745
   C1   11.91936    0.63224   13.30241
   H1   11.86375    1.06827   14.20062
   C2   11.63293    1.36928   12.14756
   H2   11.37264    2.33201   12.22076
   C3   11.71635    0.71524   10.80024
   H3   11.51167    1.24194    9.97523
   C4   12.08064   -0.63224   10.69759
   H4   12.13625   -1.06827    9.79938
   C5   12.36707   -1.36928   11.85244
   H5   12.62736   -2.33201   11.77924
   C6   12.28365   -0.71524   13.19976
   H6   12.48833   -1.24194   14.02477
   C1   13.19608   -0.81645   18.07282
   H1   14.02096   -1.37952   18.12304
   C2   12.51579   -0.46537   19.24452
   H2   12.85473   -0.77768   20.13196
   C3   11.27846    0.37923   19.16919
   H3   10.79252    0.62999   20.00641
   C4   10.80392    0.81645   17.92718
   H4    9.97904    1.37952   17.87696
   C5   11.48421    0.46537   16.75548
   H5   11.14527    0.77768   15.86804
   C6   12.72154   -0.37923   16.83081
   H6   13.20748   -0.62999   15.99359
   C1   12.00848    5.94585    1.44896
   H1   12.01433    5.90850    2.44825
   C2   13.16700    6.31440    0.75545
   H2   14.00064    6.54038    1.25938
   C3   13.15822    6.37042   -0.74347
   H3   13.98601    6.63375   -1.23884
   C4   11.99152    6.05415   -1.44896
   H4   11.98567    6.09150   -2.44825
   C5   10.83300    5.68560   -0.75545
   H5    9.99936    5.45962   -1.25938
   C6   10.84178    5.62958    0.74347
   H6   10.01399    5.36625    1.23884
   C1   11.88225    6.08365    7.44279
   H1   11.80105    6.14134    8.43781
   C2   11.80245    7.24483    6.66545
   H2   11.66422    8.13221    7.10522
   C3   11.92426    7.15829    5.17291
   H3   11.86723    7.98798    4.61765
   C4   12.11775    5.91635    4.55721
   H4   12.19895    5.85866    3.56219
   C5   12.19755    4.75517    5.33455
   H5   12.33578    3.86779    4.89478
   C6   12.07574    4.84171    6.82709
   H6   12.13277    4.01202    7.38235
   C1   12.74153    6.90039   12.86135
   H1   13.25293    7.52135   13.45538
   C2   12.44017    7.27795   11.54774
   H2   12.73633    8.16878   11.20326
   C3   11.67307    6.34651   10.65668
   H3   11.45783    6.61638    9.71818
   C4   11.25847    5.09961   11.13865
   H4   10.74707    4.47865   10.54462
   C5   11.55983    4.72205   12.45226
   H5   11.26367    3.83122   12.79674
   C6   12.32693    5.65349   13.34332
   H6   12.54217    5.38362   14.28182
   C1   11.40879    7.26951   18.37593
   H1   11.00106    8.14503   18.63519
   C2   12.76880    7.03449   18.60846
   H2   13.33276    7.74222   19.03391
   C3   13.38040    5.72120   18.21957
   H3   14.35209    5.55342   18.38576
   C4   12.59121    4.73049   17.62407
   H4   12.99894    3.85497   17.36481
   C5   11.23120    4.96551   17.39154
   H5   10.66724    4.25778   16.96609
   C6   10.61960    6.27880   17.78043
   H6    9.64791    6.44658   17.61424
   C1   11.66324   10.62807    0.32695
   H1   11.43100    9.68191    0.55244
   C2   10.66784   11.50670   -0.11590
   H2    9.72431   11.18818   -0.20681
   C3   11.01621   12.92594   -0.45413
   H3   10.30493   13.55358   -0.77053
   C4   12.33676   13.37193   -0.32695
   H4   12.56900   14.31809   -0.55244
   C5   13.33216   12.49330    0.11590
   H5   14.27569   12.81182    0.20681
   C6   12.98379   11.07406    0.45413
   H6   13.69507   10.44642    0.77053
   C1   12.99520   10.95367    6.13146
   H1   13.68154   10.23207    6.22213
   C2   13.39426   12.27224    5.88432
   H2   14.36585   12.49266    5.79841
   C3   12.36474   13.35465    5.74832
   H3   12.64999   14.29667    5.57174
   C4   11.00480   13.04633    5.86854
   H4   10.31846   13.76793    5.77787
   C5   10.60574   11.72776    6.11568
   H5    9.63415   11.50734    6.20159
   C6   11.63526   10.64535    6.25168
   H6   11.35001    9.70333    6.42826
   C1   12.01784   12.87201   10.84165
   H1   12.03014   13.47339   10.04278
   C2   11.14673   13.13765   11.90445
   H2   10.53661   13.92894   11.86485
   C3   11.12828   12.23557   13.10275
   H3   10.50586   12.42548   13.86201
   C4   11.98216   11.12799   13.15835
   H4   11.96986   10.52661   13.95722
   C5   12.85327   10.86235   12.09555
   H5   13.46339   10.07106   12.13515
   C6   12.87172   11.76443   10.89725
   H6   13.49414   11.57452   10.13799
   C1   10.99596   12.67807   18.79663
   H1   10.30352   13.14570   19.34603
   C2   11.48290   13.27505   17.62811
   H2   11.13828   14.16932   17.34267
   C3   12.52157   12.57360   16.80401
   H3   12.86938   13.00023   15.96916
   C4   13.00404   11.32193   17.20337
   H4   13.69648   10.85430   16.65397
   C5   12.51710   10.72495   18.37189
   H5   12.86172    9.83068   18.65733
   C6   11.47843   11.42640   19.19599
   H6   11.13062   10.99977   20.03084
   C1   13.13996   18.88222   -0.15708
   H1   13.92615   19.49065   -0.26541
   C2   11.95091   19.36726    0.39956
   H2   11.88762   20.32235    0.68894
   C3   10.77164   18.45462    0.56205
   H3    9.92217   18.80128    0.95977
   C4   10.86004   17.11778    0.15708
   H4   10.07385   16.50935    0.26541
   C5   12.04909   16.63274   -0.39956
   H5   12.11238   15.67765   -0.68894
   C6   13.22836   17.54538   -0.56205
   H6   14.07783   17.19872   -0.95977
   C1   11.77229   18.71879    7.23854
   H1   11.61525   19.21450    8.09271
   C2   13.07903   18.45094    6.81473
   H2   13.85566   18.75536    7.36621
   C3   13.31460   17.70737    5.53348
   H3   14.24827   17.51607    5.23079
   C4   12.22771   17.28121    4.76146
   H4   12.38475   16.78550    3.90729
   C5   10.92097   17.54906    5.18527
   H5   10.14434   17.24464    4.63379
   C6   10.68540   18.29263    6.46652
   H6    9.75173   18.48393    6.76921
   C1   10.81045   17.26795   12.38934
   H1    9.99008   16.76309   12.65786
   C2   11.56448   17.94330   13.35593
   H2   11.28274   17.92090   14.31514
   C3   12.79505   18.70059   12.95316
   H3   13.33368   19.18305   13.64386
   C4   13.18955   18.73205   11.61066
   H4   14.00992   19.23691   11.34214
   C5   12.43552   18.05670   10.64407
   H5   12.71726   18.07910    9.68486
   C6   11.20495   17.29941   11.04684
   H6   10.66632   16.81695   10.35614
   C1   13.21059   17.31176   17.59590
   H1   14.04548   16.83711   17.31721
   C2   12.01087   16.60207   17.72228
   H2   11.98868   15.62026   17.53385
   C3   10.75854   17.31405   18.14032
   H3    9.90146   16.80688   18.23058
   C4   10.78941   18.68824   18.40410
   H4    9.95452   19.16289   18.68279
   C5   11.98913   19.39793   18.27772
   H5   12.01132   20.37974   18.46615
   C6   13.24146   18.68595   17.85968
   H6   14.09854   19.19312   17.76942
   C1   18.66555   -0.51288   -1.18174
   H1   19.12455   -0.86658   -1.99673
   C2   18.70124    0.85707   -0.89729
   H2   19.18582    1.48217   -1.50917
   C3   18.01274    1.38763    0.32519
   H3   18.03832    2.36643    0.52830
   C4   17.33445    0.51288    1.18174
   H4   16.87545    0.86658    1.99673
   C5   17.29876   -0.85707    0.89729
   H5   16.81418   -1.48217    1.50917
   C6   17.98726   -1.38763   -0.32519
   H6   17.96168   -2.36643   -0.52830
   C1   18.84145   -1.09697    5.56283
   H1   19.42176   -1.85350    5.26134
   C2   19.29535   -0.21817    6.55310
   H2   20.20008   -0.34690    6.95912
   C3   18.42488    0.91663    7.00534
   H3   18.74930    1.54443    7.71286
   C4   17.15855    1.09697    6.43717
   H4   16.57824    1.85350    6.73866
   C5   16.70465    0.21817    5.44690
   H5   15.79992    0.34690    5.04088
   C6   17.57512   -0.91663    4.99466
   H6   17.25070   -1.54443    4.28714
   C1   18.18062   -0.13817   13.43206
   H1   18.30518   -0.23346   14.41968
   C2   17.71725    1.06985   12.89828
   H2   17.51074    1.83770   13.50468
   C3   17.53040    1.21279   11.41684
   H3   17.19933    2.07593   11.03561
   C4   17.81938    0.13817   10.56794
   H4   17.69482    0.23346    9.58032
   C5   18.28275   -1.06985   11.10172
   H5   18.48926   -1.83770   10.49532
   C6   18.46960   -1.21279   12.58316
   H6   18.80067   -2.07593   12.96439
   C1   17.52799    0.12085   19.36569
   H1   17.20246    0.20420   20.30754
   C2   16.90389   -0.77079   18.48567
   H2   16.13238   -1.32453   18.79889
   C3   17.39218   -0.89581   17.07289
   H3   16.94620   -1.53289   16.44426
   C4   18.47201   -0.12085   16.63431
   H4   18.79754   -0.20420   15.69246
   C5   19.09611    0.77079   17.51433
   H5   19.86762    1.32453   17.20111
   C6   18.60782    0.89581   18.92711
   H6   19.05380    1.53289   19.55574
   C1   18.28540    5.77630   -1.40392
   H1   18.48223    5.62202   -2.37215
   C2   17.16695    6.52923   -1.02829
   H2   16.56465    6.91291   -1.72828
   C3   16.87170    6.76064    0.42404
   H3   16.07258    7.29860    0.69228
   C4   17.71460    6.22370    1.40392
   H4   17.51777    6.37798    2.37215
   C5   18.83305    5.47077    1.02829
   H5   19.43535    5.08709    1.72828
   C6   19.12830    5.23936   -0.42404
   H6   19.92742    4.70140   -0.69228
   C1   19.34128    5.79334    6.51064
   H1   20.26631    5.65082    6.86280
   C2   18.48321    4.70164    6.33499
   H2   18.79528    3.77905    6.56171
   C3   17.09568    4.91543    5.80675
   H3   16.48272    4.13536    5.68130
   C4   16.65872    6.20666    5.48936
   H4   15.73369    6.34918    5.13720
   C5   17.51679    7.29836    5.66501
   H5   17.20472    8.22095    5.43829
   C6   18.90432    7.08457    6.19325
   H6   19.51728    7.86464    6.31870
   C1   17.96260    6.74385   10.75590
   H1   17.93680    7.25686    9.89790
   C2   16.77182    6.29848   11.34126
   H2   15.89519    6.49334   10.90137
   C3   16.81052    5.52898   12.62826
   H3   15.95968    5.21084   13.04637
   C4   18.03740    5.25615   13.24410
   H4   18.06320    4.74314   14.10210
   C5   19.22818    5.70152   12.65874
   H5   20.10481    5.50666   13.09863
   C6   19.18948    6.47102   11.37174
   H6   20.04032    6.78916   10.95363
   C1   17.69185    7.10988   17.11926
   H1   17.47934    7.87532   16.51185
   C2   16.85693    5.98695   17.14873
   H2   16.04780    5.95016   16.56229
   C3   17.17570    4.83880   18.05985
   H3   16.57909    4.03657   18.08081
   C4   18.30815    4.89012   18.88074
   H4   18.52066    4.12468   19.48815
   C5   19.14307    6.01305   18.85127
   H5   19.95220    6.04984   19.43771
   C6   18.82430    7.16120   17.94015
   H6   19.42091    7.96343   17.91919
   C1   17.17992   12.26228    1.16670
   H1   16.61435   12.44317    1.97131
   C2   18.25100   13.10915    0.85920
   H2   18.45064   13.89517    1.44424
   C3   19.09935   12.83782   -0.34773
   H3   19.86457   13.44296   -0.56731
   C4   18.82008   11.73772   -1.16670
   H4   19.38565   11.55683   -1.97131
   C5   17.74900   10.89085   -0.85920
   H5   17.54936   10.10483   -1.44424
   C6   16.90065   11.16218    0.34773
   H6   16.13543   10.55704    0.56731
   C1   18.75542   13.13547    6.49249
   H1   19.27640   13.91855    6.83214
   C2   19.33932   12.24861    5.58064
   H2   20.27759   12.39814    5.26880
   C3   18.55785   11.07398    5.07116
   H3   18.97514   10.44043    4.41967
   C4   17.24458   10.86453    5.50751
   H4   16.72360   10.08145    5.16786
   C5   16.66068   11.75139    6.41936
   H5   15.72241   11.60186    6.73120
   C6   17.44215   12.92602    6.92884
   H6   17.02486   13.55957    7.58033
   C1   17.09151   11.54379   10.96607
   H1   16.46496   11.22916   10.25301
   C2   17.00044   12.85406   11.44964
   H2   16.30872   13.47559   11.08198
   C3   17.94026   13.32600   12.51922
   H3   17.87508   14.26217   12.86462
   C4   18.90849   12.45621   13.03393
   H4   19.53504   12.77084   13.74699
   C5   18.99956   11.14594   12.55036
   H5   19.69128   10.52441   12.91802
   C6   18.05974   10.67400   11.48078
   H6   18.12492    9.73783   11.13538
   C1   18.12939   11.98403   16.55587
   H1   18.21862   11.97301   15.55992
   C2   16.86938   12.14328   17.14407
   H2   16.05833   12.24606   16.56823
   C3   16.73553   12.15980   18.63799
   H3   15.83525   12.27359   19.05810
   C4   17.87061   12.01597   19.44413
   H4   17.78138   12.02699   20.44008
   C5   19.13062   11.85672   18.85593
   H5   19.94167   11.75394   19.43177
   C6   19.26447   11.84020   17.36201
   H6   20.16475   11.72641   16.94190
   C1   16.75029   17.28484    0.17112
   H1   15.88843   16.79162    0.28913
   C2   16.77921   18.47906   -0.55823
   H2   15.93786   18.83906   -0.96133
   C3   18.07201   19.21888   -0.73525
   H3   18.09253   20.07210   -1.25636
   C4   19.24971   18.71516   -0.17112
   H4   20.11157   19.20838   -0.28913
   C5   19.22079   17.52094    0.55823
   H5   20.06214   17.16094    0.96133
   C6   17.92799   16.78112    0.73525
   H6   17.90747   15.92790    1.25636
   C1   19.00210   18.34671    6.98898
   H1   19.69321   18.58582    7.67104
   C2   19.39329   17.95764    5.70269
   H2   20.36402   17.91878    5.46578
   C3   18.35663   17.59897    4.67961
   H3   18.63626   17.32101    3.76064
   C4   16.99790   17.65329    5.01102
   H4   16.30679   17.41418    4.32896
   C5   16.60671   18.04236    6.29731
   H5   15.63598   18.08122    6.53422
   C6   17.64337   18.40103    7.32039
   H6   17.36374   18.67899    8.23936
   C1   18.82327   18.96207   11.29350
   H1   19.39105   19.62557   10.80626
   C2   17.74642   18.34999   10.64182
   H2   17.54485   18.57625    9.68886
   C3   16.89476   17.35474   11.37269
   H3   16.12541   16.91751   10.90697
   C4   17.17673   17.03793   12.70650
   H4   16.60895   16.37443   13.19374
   C5   18.25358   17.65001   13.35818
   H5   18.45515   17.42375   14.31114
   C6   19.10524   18.64526   12.62731
   H6   19.87459   19.08249   13.09303
   C1   17.95660   18.82446   19.19200
   H1   17.92668   19.39306   20.01408
   C2   18.01335   19.42342   17.92829
   H2   18.02396   20.42008   17.84754
   C3   18.05824   18.57052   16.69518
   H3   18.09878   18.99858   15.79236
   C4   18.04340   17.17554   16.80800
   H4   18.07332   16.60694   15.98592
   C5   17.98665   16.57658   18.07171
   H5   17.97604   15.57992   18.15246
   C6   17.94176   17.42948   19.30482
   H6   17.90122   17.00142   20.20764
