        12
Translated Molecule
   C1    1.45000    0.00000    0.00000
   H1    2.45000    0.00000    0.00000
   C2    0.75000   -0.60600    1.04962
   H2    1.25000   -1.03900    1.79960
   C3   -0.75000   -0.60600    1.04962
   H3   -1.25000   -1.03900    1.79960
   C4   -1.45000    0.00000    0.00000
   H4   -2.45000    0.00000    0.00000
   C5   -0.75000    0.60600   -1.04962
   H5   -1.25000    1.03900   -1.79960
   C6    0.75000    0.60600   -1.04962
   H6    1.25000    1.03900   -1.79960
